
---------- Begin Simulation Statistics ----------
simSeconds                                   0.000010                       # Number of seconds simulated (Second)
simTicks                                     10000000                       # Number of ticks simulated (Tick)
finalTick                                    10000000                       # Number of ticks from beginning of simulation (restored from checkpoints and never reset) (Tick)
simFreq                                  1000000000000                       # The number of ticks per simulated second ((Tick/Second))
hostSeconds                                     31.76                       # Real time elapsed on the host (Second)
hostTickRate                                   314898                       # The number of ticks simulated per host second (ticks/s) ((Tick/Second))
hostMemory                                     888220                       # Number of bytes of host memory used (Byte)
system.clk_domain.clock                          1000                       # Clock period in ticks (Tick)
system.cpu0.power_state.pwrStateResidencyTicks::UNDEFINED     10000000                       # Cumulative time (in ticks) in various power states (Tick)
system.cpu1.power_state.pwrStateResidencyTicks::UNDEFINED     10000000                       # Cumulative time (in ticks) in various power states (Tick)
system.cpu10.power_state.pwrStateResidencyTicks::UNDEFINED     10000000                       # Cumulative time (in ticks) in various power states (Tick)
system.cpu11.power_state.pwrStateResidencyTicks::UNDEFINED     10000000                       # Cumulative time (in ticks) in various power states (Tick)
system.cpu12.power_state.pwrStateResidencyTicks::UNDEFINED     10000000                       # Cumulative time (in ticks) in various power states (Tick)
system.cpu13.power_state.pwrStateResidencyTicks::UNDEFINED     10000000                       # Cumulative time (in ticks) in various power states (Tick)
system.cpu14.power_state.pwrStateResidencyTicks::UNDEFINED     10000000                       # Cumulative time (in ticks) in various power states (Tick)
system.cpu15.power_state.pwrStateResidencyTicks::UNDEFINED     10000000                       # Cumulative time (in ticks) in various power states (Tick)
system.cpu16.power_state.pwrStateResidencyTicks::UNDEFINED     10000000                       # Cumulative time (in ticks) in various power states (Tick)
system.cpu17.power_state.pwrStateResidencyTicks::UNDEFINED     10000000                       # Cumulative time (in ticks) in various power states (Tick)
system.cpu18.power_state.pwrStateResidencyTicks::UNDEFINED     10000000                       # Cumulative time (in ticks) in various power states (Tick)
system.cpu19.power_state.pwrStateResidencyTicks::UNDEFINED     10000000                       # Cumulative time (in ticks) in various power states (Tick)
system.cpu2.power_state.pwrStateResidencyTicks::UNDEFINED     10000000                       # Cumulative time (in ticks) in various power states (Tick)
system.cpu20.power_state.pwrStateResidencyTicks::UNDEFINED     10000000                       # Cumulative time (in ticks) in various power states (Tick)
system.cpu21.power_state.pwrStateResidencyTicks::UNDEFINED     10000000                       # Cumulative time (in ticks) in various power states (Tick)
system.cpu22.power_state.pwrStateResidencyTicks::UNDEFINED     10000000                       # Cumulative time (in ticks) in various power states (Tick)
system.cpu23.power_state.pwrStateResidencyTicks::UNDEFINED     10000000                       # Cumulative time (in ticks) in various power states (Tick)
system.cpu24.power_state.pwrStateResidencyTicks::UNDEFINED     10000000                       # Cumulative time (in ticks) in various power states (Tick)
system.cpu25.power_state.pwrStateResidencyTicks::UNDEFINED     10000000                       # Cumulative time (in ticks) in various power states (Tick)
system.cpu26.power_state.pwrStateResidencyTicks::UNDEFINED     10000000                       # Cumulative time (in ticks) in various power states (Tick)
system.cpu27.power_state.pwrStateResidencyTicks::UNDEFINED     10000000                       # Cumulative time (in ticks) in various power states (Tick)
system.cpu28.power_state.pwrStateResidencyTicks::UNDEFINED     10000000                       # Cumulative time (in ticks) in various power states (Tick)
system.cpu29.power_state.pwrStateResidencyTicks::UNDEFINED     10000000                       # Cumulative time (in ticks) in various power states (Tick)
system.cpu3.power_state.pwrStateResidencyTicks::UNDEFINED     10000000                       # Cumulative time (in ticks) in various power states (Tick)
system.cpu30.power_state.pwrStateResidencyTicks::UNDEFINED     10000000                       # Cumulative time (in ticks) in various power states (Tick)
system.cpu31.power_state.pwrStateResidencyTicks::UNDEFINED     10000000                       # Cumulative time (in ticks) in various power states (Tick)
system.cpu32.power_state.pwrStateResidencyTicks::UNDEFINED     10000000                       # Cumulative time (in ticks) in various power states (Tick)
system.cpu33.power_state.pwrStateResidencyTicks::UNDEFINED     10000000                       # Cumulative time (in ticks) in various power states (Tick)
system.cpu34.power_state.pwrStateResidencyTicks::UNDEFINED     10000000                       # Cumulative time (in ticks) in various power states (Tick)
system.cpu35.power_state.pwrStateResidencyTicks::UNDEFINED     10000000                       # Cumulative time (in ticks) in various power states (Tick)
system.cpu36.power_state.pwrStateResidencyTicks::UNDEFINED     10000000                       # Cumulative time (in ticks) in various power states (Tick)
system.cpu37.power_state.pwrStateResidencyTicks::UNDEFINED     10000000                       # Cumulative time (in ticks) in various power states (Tick)
system.cpu38.power_state.pwrStateResidencyTicks::UNDEFINED     10000000                       # Cumulative time (in ticks) in various power states (Tick)
system.cpu39.power_state.pwrStateResidencyTicks::UNDEFINED     10000000                       # Cumulative time (in ticks) in various power states (Tick)
system.cpu4.power_state.pwrStateResidencyTicks::UNDEFINED     10000000                       # Cumulative time (in ticks) in various power states (Tick)
system.cpu40.power_state.pwrStateResidencyTicks::UNDEFINED     10000000                       # Cumulative time (in ticks) in various power states (Tick)
system.cpu41.power_state.pwrStateResidencyTicks::UNDEFINED     10000000                       # Cumulative time (in ticks) in various power states (Tick)
system.cpu42.power_state.pwrStateResidencyTicks::UNDEFINED     10000000                       # Cumulative time (in ticks) in various power states (Tick)
system.cpu43.power_state.pwrStateResidencyTicks::UNDEFINED     10000000                       # Cumulative time (in ticks) in various power states (Tick)
system.cpu44.power_state.pwrStateResidencyTicks::UNDEFINED     10000000                       # Cumulative time (in ticks) in various power states (Tick)
system.cpu45.power_state.pwrStateResidencyTicks::UNDEFINED     10000000                       # Cumulative time (in ticks) in various power states (Tick)
system.cpu46.power_state.pwrStateResidencyTicks::UNDEFINED     10000000                       # Cumulative time (in ticks) in various power states (Tick)
system.cpu47.power_state.pwrStateResidencyTicks::UNDEFINED     10000000                       # Cumulative time (in ticks) in various power states (Tick)
system.cpu48.power_state.pwrStateResidencyTicks::UNDEFINED     10000000                       # Cumulative time (in ticks) in various power states (Tick)
system.cpu49.power_state.pwrStateResidencyTicks::UNDEFINED     10000000                       # Cumulative time (in ticks) in various power states (Tick)
system.cpu5.power_state.pwrStateResidencyTicks::UNDEFINED     10000000                       # Cumulative time (in ticks) in various power states (Tick)
system.cpu50.power_state.pwrStateResidencyTicks::UNDEFINED     10000000                       # Cumulative time (in ticks) in various power states (Tick)
system.cpu51.power_state.pwrStateResidencyTicks::UNDEFINED     10000000                       # Cumulative time (in ticks) in various power states (Tick)
system.cpu52.power_state.pwrStateResidencyTicks::UNDEFINED     10000000                       # Cumulative time (in ticks) in various power states (Tick)
system.cpu53.power_state.pwrStateResidencyTicks::UNDEFINED     10000000                       # Cumulative time (in ticks) in various power states (Tick)
system.cpu54.power_state.pwrStateResidencyTicks::UNDEFINED     10000000                       # Cumulative time (in ticks) in various power states (Tick)
system.cpu55.power_state.pwrStateResidencyTicks::UNDEFINED     10000000                       # Cumulative time (in ticks) in various power states (Tick)
system.cpu56.power_state.pwrStateResidencyTicks::UNDEFINED     10000000                       # Cumulative time (in ticks) in various power states (Tick)
system.cpu57.power_state.pwrStateResidencyTicks::UNDEFINED     10000000                       # Cumulative time (in ticks) in various power states (Tick)
system.cpu58.power_state.pwrStateResidencyTicks::UNDEFINED     10000000                       # Cumulative time (in ticks) in various power states (Tick)
system.cpu59.power_state.pwrStateResidencyTicks::UNDEFINED     10000000                       # Cumulative time (in ticks) in various power states (Tick)
system.cpu6.power_state.pwrStateResidencyTicks::UNDEFINED     10000000                       # Cumulative time (in ticks) in various power states (Tick)
system.cpu60.power_state.pwrStateResidencyTicks::UNDEFINED     10000000                       # Cumulative time (in ticks) in various power states (Tick)
system.cpu61.power_state.pwrStateResidencyTicks::UNDEFINED     10000000                       # Cumulative time (in ticks) in various power states (Tick)
system.cpu62.power_state.pwrStateResidencyTicks::UNDEFINED     10000000                       # Cumulative time (in ticks) in various power states (Tick)
system.cpu63.power_state.pwrStateResidencyTicks::UNDEFINED     10000000                       # Cumulative time (in ticks) in various power states (Tick)
system.cpu7.power_state.pwrStateResidencyTicks::UNDEFINED     10000000                       # Cumulative time (in ticks) in various power states (Tick)
system.cpu8.power_state.pwrStateResidencyTicks::UNDEFINED     10000000                       # Cumulative time (in ticks) in various power states (Tick)
system.cpu9.power_state.pwrStateResidencyTicks::UNDEFINED     10000000                       # Cumulative time (in ticks) in various power states (Tick)
system.mem_ctrls0.priorityMinLatency     0.000000000000                       # per QoS priority minimum request to response latency (Second)
system.mem_ctrls0.priorityMaxLatency     0.000000000000                       # per QoS priority maximum request to response latency (Second)
system.mem_ctrls0.numReadWriteTurnArounds            0                       # Number of turnarounds from READ to WRITE (Count)
system.mem_ctrls0.numWriteReadTurnArounds            0                       # Number of turnarounds from WRITE to READ (Count)
system.mem_ctrls0.numStayReadState                  2                       # Number of times bus staying in READ state (Count)
system.mem_ctrls0.numStayWriteState                 0                       # Number of times bus staying in WRITE state (Count)
system.mem_ctrls0.readReqs                          0                       # Number of read requests accepted (Count)
system.mem_ctrls0.writeReqs                         0                       # Number of write requests accepted (Count)
system.mem_ctrls0.readBursts                        0                       # Number of controller read bursts, including those serviced by the write queue (Count)
system.mem_ctrls0.writeBursts                       0                       # Number of controller write bursts, including those merged in the write queue (Count)
system.mem_ctrls0.servicedByWrQ                     0                       # Number of controller read bursts serviced by the write queue (Count)
system.mem_ctrls0.mergedWrBursts                    0                       # Number of controller write bursts merged with an existing one (Count)
system.mem_ctrls0.neitherReadNorWriteReqs            0                       # Number of requests that are neither read nor write (Count)
system.mem_ctrls0.avgRdQLen                      0.00                       # Average read queue length when enqueuing ((Count/Tick))
system.mem_ctrls0.avgWrQLen                      0.00                       # Average write queue length when enqueuing ((Count/Tick))
system.mem_ctrls0.numRdRetry                        0                       # Number of times read queue was full causing retry (Count)
system.mem_ctrls0.numWrRetry                        0                       # Number of times write queue was full causing retry (Count)
system.mem_ctrls0.readPktSize::0                    0                       # Read request sizes (log2) (Count)
system.mem_ctrls0.readPktSize::1                    0                       # Read request sizes (log2) (Count)
system.mem_ctrls0.readPktSize::2                    0                       # Read request sizes (log2) (Count)
system.mem_ctrls0.readPktSize::3                    0                       # Read request sizes (log2) (Count)
system.mem_ctrls0.readPktSize::4                    0                       # Read request sizes (log2) (Count)
system.mem_ctrls0.readPktSize::5                    0                       # Read request sizes (log2) (Count)
system.mem_ctrls0.readPktSize::6                    0                       # Read request sizes (log2) (Count)
system.mem_ctrls0.writePktSize::0                   0                       # Write request sizes (log2) (Count)
system.mem_ctrls0.writePktSize::1                   0                       # Write request sizes (log2) (Count)
system.mem_ctrls0.writePktSize::2                   0                       # Write request sizes (log2) (Count)
system.mem_ctrls0.writePktSize::3                   0                       # Write request sizes (log2) (Count)
system.mem_ctrls0.writePktSize::4                   0                       # Write request sizes (log2) (Count)
system.mem_ctrls0.writePktSize::5                   0                       # Write request sizes (log2) (Count)
system.mem_ctrls0.writePktSize::6                   0                       # Write request sizes (log2) (Count)
system.mem_ctrls0.rdQLenPdf::0                      0                       # What read queue length does an incoming req see (Count)
system.mem_ctrls0.rdQLenPdf::1                      0                       # What read queue length does an incoming req see (Count)
system.mem_ctrls0.rdQLenPdf::2                      0                       # What read queue length does an incoming req see (Count)
system.mem_ctrls0.rdQLenPdf::3                      0                       # What read queue length does an incoming req see (Count)
system.mem_ctrls0.rdQLenPdf::4                      0                       # What read queue length does an incoming req see (Count)
system.mem_ctrls0.rdQLenPdf::5                      0                       # What read queue length does an incoming req see (Count)
system.mem_ctrls0.rdQLenPdf::6                      0                       # What read queue length does an incoming req see (Count)
system.mem_ctrls0.rdQLenPdf::7                      0                       # What read queue length does an incoming req see (Count)
system.mem_ctrls0.rdQLenPdf::8                      0                       # What read queue length does an incoming req see (Count)
system.mem_ctrls0.rdQLenPdf::9                      0                       # What read queue length does an incoming req see (Count)
system.mem_ctrls0.rdQLenPdf::10                     0                       # What read queue length does an incoming req see (Count)
system.mem_ctrls0.rdQLenPdf::11                     0                       # What read queue length does an incoming req see (Count)
system.mem_ctrls0.rdQLenPdf::12                     0                       # What read queue length does an incoming req see (Count)
system.mem_ctrls0.rdQLenPdf::13                     0                       # What read queue length does an incoming req see (Count)
system.mem_ctrls0.rdQLenPdf::14                     0                       # What read queue length does an incoming req see (Count)
system.mem_ctrls0.rdQLenPdf::15                     0                       # What read queue length does an incoming req see (Count)
system.mem_ctrls0.rdQLenPdf::16                     0                       # What read queue length does an incoming req see (Count)
system.mem_ctrls0.rdQLenPdf::17                     0                       # What read queue length does an incoming req see (Count)
system.mem_ctrls0.rdQLenPdf::18                     0                       # What read queue length does an incoming req see (Count)
system.mem_ctrls0.rdQLenPdf::19                     0                       # What read queue length does an incoming req see (Count)
system.mem_ctrls0.rdQLenPdf::20                     0                       # What read queue length does an incoming req see (Count)
system.mem_ctrls0.rdQLenPdf::21                     0                       # What read queue length does an incoming req see (Count)
system.mem_ctrls0.rdQLenPdf::22                     0                       # What read queue length does an incoming req see (Count)
system.mem_ctrls0.rdQLenPdf::23                     0                       # What read queue length does an incoming req see (Count)
system.mem_ctrls0.rdQLenPdf::24                     0                       # What read queue length does an incoming req see (Count)
system.mem_ctrls0.rdQLenPdf::25                     0                       # What read queue length does an incoming req see (Count)
system.mem_ctrls0.rdQLenPdf::26                     0                       # What read queue length does an incoming req see (Count)
system.mem_ctrls0.rdQLenPdf::27                     0                       # What read queue length does an incoming req see (Count)
system.mem_ctrls0.rdQLenPdf::28                     0                       # What read queue length does an incoming req see (Count)
system.mem_ctrls0.rdQLenPdf::29                     0                       # What read queue length does an incoming req see (Count)
system.mem_ctrls0.rdQLenPdf::30                     0                       # What read queue length does an incoming req see (Count)
system.mem_ctrls0.rdQLenPdf::31                     0                       # What read queue length does an incoming req see (Count)
system.mem_ctrls0.wrQLenPdf::0                      0                       # What write queue length does an incoming req see (Count)
system.mem_ctrls0.wrQLenPdf::1                      0                       # What write queue length does an incoming req see (Count)
system.mem_ctrls0.wrQLenPdf::2                      0                       # What write queue length does an incoming req see (Count)
system.mem_ctrls0.wrQLenPdf::3                      0                       # What write queue length does an incoming req see (Count)
system.mem_ctrls0.wrQLenPdf::4                      0                       # What write queue length does an incoming req see (Count)
system.mem_ctrls0.wrQLenPdf::5                      0                       # What write queue length does an incoming req see (Count)
system.mem_ctrls0.wrQLenPdf::6                      0                       # What write queue length does an incoming req see (Count)
system.mem_ctrls0.wrQLenPdf::7                      0                       # What write queue length does an incoming req see (Count)
system.mem_ctrls0.wrQLenPdf::8                      0                       # What write queue length does an incoming req see (Count)
system.mem_ctrls0.wrQLenPdf::9                      0                       # What write queue length does an incoming req see (Count)
system.mem_ctrls0.wrQLenPdf::10                     0                       # What write queue length does an incoming req see (Count)
system.mem_ctrls0.wrQLenPdf::11                     0                       # What write queue length does an incoming req see (Count)
system.mem_ctrls0.wrQLenPdf::12                     0                       # What write queue length does an incoming req see (Count)
system.mem_ctrls0.wrQLenPdf::13                     0                       # What write queue length does an incoming req see (Count)
system.mem_ctrls0.wrQLenPdf::14                     0                       # What write queue length does an incoming req see (Count)
system.mem_ctrls0.wrQLenPdf::15                     0                       # What write queue length does an incoming req see (Count)
system.mem_ctrls0.wrQLenPdf::16                     0                       # What write queue length does an incoming req see (Count)
system.mem_ctrls0.wrQLenPdf::17                     0                       # What write queue length does an incoming req see (Count)
system.mem_ctrls0.wrQLenPdf::18                     0                       # What write queue length does an incoming req see (Count)
system.mem_ctrls0.wrQLenPdf::19                     0                       # What write queue length does an incoming req see (Count)
system.mem_ctrls0.wrQLenPdf::20                     0                       # What write queue length does an incoming req see (Count)
system.mem_ctrls0.wrQLenPdf::21                     0                       # What write queue length does an incoming req see (Count)
system.mem_ctrls0.wrQLenPdf::22                     0                       # What write queue length does an incoming req see (Count)
system.mem_ctrls0.wrQLenPdf::23                     0                       # What write queue length does an incoming req see (Count)
system.mem_ctrls0.wrQLenPdf::24                     0                       # What write queue length does an incoming req see (Count)
system.mem_ctrls0.wrQLenPdf::25                     0                       # What write queue length does an incoming req see (Count)
system.mem_ctrls0.wrQLenPdf::26                     0                       # What write queue length does an incoming req see (Count)
system.mem_ctrls0.wrQLenPdf::27                     0                       # What write queue length does an incoming req see (Count)
system.mem_ctrls0.wrQLenPdf::28                     0                       # What write queue length does an incoming req see (Count)
system.mem_ctrls0.wrQLenPdf::29                     0                       # What write queue length does an incoming req see (Count)
system.mem_ctrls0.wrQLenPdf::30                     0                       # What write queue length does an incoming req see (Count)
system.mem_ctrls0.wrQLenPdf::31                     0                       # What write queue length does an incoming req see (Count)
system.mem_ctrls0.wrQLenPdf::32                     0                       # What write queue length does an incoming req see (Count)
system.mem_ctrls0.wrQLenPdf::33                     0                       # What write queue length does an incoming req see (Count)
system.mem_ctrls0.wrQLenPdf::34                     0                       # What write queue length does an incoming req see (Count)
system.mem_ctrls0.wrQLenPdf::35                     0                       # What write queue length does an incoming req see (Count)
system.mem_ctrls0.wrQLenPdf::36                     0                       # What write queue length does an incoming req see (Count)
system.mem_ctrls0.wrQLenPdf::37                     0                       # What write queue length does an incoming req see (Count)
system.mem_ctrls0.wrQLenPdf::38                     0                       # What write queue length does an incoming req see (Count)
system.mem_ctrls0.wrQLenPdf::39                     0                       # What write queue length does an incoming req see (Count)
system.mem_ctrls0.wrQLenPdf::40                     0                       # What write queue length does an incoming req see (Count)
system.mem_ctrls0.wrQLenPdf::41                     0                       # What write queue length does an incoming req see (Count)
system.mem_ctrls0.wrQLenPdf::42                     0                       # What write queue length does an incoming req see (Count)
system.mem_ctrls0.wrQLenPdf::43                     0                       # What write queue length does an incoming req see (Count)
system.mem_ctrls0.wrQLenPdf::44                     0                       # What write queue length does an incoming req see (Count)
system.mem_ctrls0.wrQLenPdf::45                     0                       # What write queue length does an incoming req see (Count)
system.mem_ctrls0.wrQLenPdf::46                     0                       # What write queue length does an incoming req see (Count)
system.mem_ctrls0.wrQLenPdf::47                     0                       # What write queue length does an incoming req see (Count)
system.mem_ctrls0.wrQLenPdf::48                     0                       # What write queue length does an incoming req see (Count)
system.mem_ctrls0.wrQLenPdf::49                     0                       # What write queue length does an incoming req see (Count)
system.mem_ctrls0.wrQLenPdf::50                     0                       # What write queue length does an incoming req see (Count)
system.mem_ctrls0.wrQLenPdf::51                     0                       # What write queue length does an incoming req see (Count)
system.mem_ctrls0.wrQLenPdf::52                     0                       # What write queue length does an incoming req see (Count)
system.mem_ctrls0.wrQLenPdf::53                     0                       # What write queue length does an incoming req see (Count)
system.mem_ctrls0.wrQLenPdf::54                     0                       # What write queue length does an incoming req see (Count)
system.mem_ctrls0.wrQLenPdf::55                     0                       # What write queue length does an incoming req see (Count)
system.mem_ctrls0.wrQLenPdf::56                     0                       # What write queue length does an incoming req see (Count)
system.mem_ctrls0.wrQLenPdf::57                     0                       # What write queue length does an incoming req see (Count)
system.mem_ctrls0.wrQLenPdf::58                     0                       # What write queue length does an incoming req see (Count)
system.mem_ctrls0.wrQLenPdf::59                     0                       # What write queue length does an incoming req see (Count)
system.mem_ctrls0.wrQLenPdf::60                     0                       # What write queue length does an incoming req see (Count)
system.mem_ctrls0.wrQLenPdf::61                     0                       # What write queue length does an incoming req see (Count)
system.mem_ctrls0.wrQLenPdf::62                     0                       # What write queue length does an incoming req see (Count)
system.mem_ctrls0.wrQLenPdf::63                     0                       # What write queue length does an incoming req see (Count)
system.mem_ctrls0.bytesReadWrQ                      0                       # Total number of bytes read from write queue (Byte)
system.mem_ctrls0.bytesReadSys                      0                       # Total read bytes from the system interface side (Byte)
system.mem_ctrls0.bytesWrittenSys                   0                       # Total written bytes from the system interface side (Byte)
system.mem_ctrls0.avgRdBWSys               0.00000000                       # Average system read bandwidth in Byte/s ((Byte/Second))
system.mem_ctrls0.avgWrBWSys               0.00000000                       # Average system write bandwidth in Byte/s ((Byte/Second))
system.mem_ctrls0.totGap                            0                       # Total gap between requests (Tick)
system.mem_ctrls0.avgGap                          nan                       # Average gap between requests ((Tick/Count))
system.mem_ctrls0.dram.readBursts                   0                       # Number of DRAM read bursts (Count)
system.mem_ctrls0.dram.writeBursts                  0                       # Number of DRAM write bursts (Count)
system.mem_ctrls0.dram.perBankRdBursts::0            0                       # Per bank write bursts (Count)
system.mem_ctrls0.dram.perBankRdBursts::1            0                       # Per bank write bursts (Count)
system.mem_ctrls0.dram.perBankRdBursts::2            0                       # Per bank write bursts (Count)
system.mem_ctrls0.dram.perBankRdBursts::3            0                       # Per bank write bursts (Count)
system.mem_ctrls0.dram.perBankRdBursts::4            0                       # Per bank write bursts (Count)
system.mem_ctrls0.dram.perBankRdBursts::5            0                       # Per bank write bursts (Count)
system.mem_ctrls0.dram.perBankRdBursts::6            0                       # Per bank write bursts (Count)
system.mem_ctrls0.dram.perBankRdBursts::7            0                       # Per bank write bursts (Count)
system.mem_ctrls0.dram.perBankRdBursts::8            0                       # Per bank write bursts (Count)
system.mem_ctrls0.dram.perBankRdBursts::9            0                       # Per bank write bursts (Count)
system.mem_ctrls0.dram.perBankRdBursts::10            0                       # Per bank write bursts (Count)
system.mem_ctrls0.dram.perBankRdBursts::11            0                       # Per bank write bursts (Count)
system.mem_ctrls0.dram.perBankRdBursts::12            0                       # Per bank write bursts (Count)
system.mem_ctrls0.dram.perBankRdBursts::13            0                       # Per bank write bursts (Count)
system.mem_ctrls0.dram.perBankRdBursts::14            0                       # Per bank write bursts (Count)
system.mem_ctrls0.dram.perBankRdBursts::15            0                       # Per bank write bursts (Count)
system.mem_ctrls0.dram.perBankWrBursts::0            0                       # Per bank write bursts (Count)
system.mem_ctrls0.dram.perBankWrBursts::1            0                       # Per bank write bursts (Count)
system.mem_ctrls0.dram.perBankWrBursts::2            0                       # Per bank write bursts (Count)
system.mem_ctrls0.dram.perBankWrBursts::3            0                       # Per bank write bursts (Count)
system.mem_ctrls0.dram.perBankWrBursts::4            0                       # Per bank write bursts (Count)
system.mem_ctrls0.dram.perBankWrBursts::5            0                       # Per bank write bursts (Count)
system.mem_ctrls0.dram.perBankWrBursts::6            0                       # Per bank write bursts (Count)
system.mem_ctrls0.dram.perBankWrBursts::7            0                       # Per bank write bursts (Count)
system.mem_ctrls0.dram.perBankWrBursts::8            0                       # Per bank write bursts (Count)
system.mem_ctrls0.dram.perBankWrBursts::9            0                       # Per bank write bursts (Count)
system.mem_ctrls0.dram.perBankWrBursts::10            0                       # Per bank write bursts (Count)
system.mem_ctrls0.dram.perBankWrBursts::11            0                       # Per bank write bursts (Count)
system.mem_ctrls0.dram.perBankWrBursts::12            0                       # Per bank write bursts (Count)
system.mem_ctrls0.dram.perBankWrBursts::13            0                       # Per bank write bursts (Count)
system.mem_ctrls0.dram.perBankWrBursts::14            0                       # Per bank write bursts (Count)
system.mem_ctrls0.dram.perBankWrBursts::15            0                       # Per bank write bursts (Count)
system.mem_ctrls0.dram.totQLat                      0                       # Total ticks spent queuing (Tick)
system.mem_ctrls0.dram.totBusLat                    0                       # Total ticks spent in databus transfers (Tick)
system.mem_ctrls0.dram.totMemAccLat                 0                       # Total ticks spent from burst creation until serviced by the DRAM (Tick)
system.mem_ctrls0.dram.avgQLat                    nan                       # Average queueing delay per DRAM burst ((Tick/Count))
system.mem_ctrls0.dram.avgBusLat                  nan                       # Average bus latency per DRAM burst ((Tick/Count))
system.mem_ctrls0.dram.avgMemAccLat               nan                       # Average memory access latency per DRAM burst ((Tick/Count))
system.mem_ctrls0.dram.readRowHits                  0                       # Number of row buffer hits during reads (Count)
system.mem_ctrls0.dram.writeRowHits                 0                       # Number of row buffer hits during writes (Count)
system.mem_ctrls0.dram.readRowHitRate             nan                       # Row buffer hit rate for reads (Ratio)
system.mem_ctrls0.dram.writeRowHitRate            nan                       # Row buffer hit rate for writes (Ratio)
system.mem_ctrls0.dram.bytesRead                    0                       # Total bytes read (Byte)
system.mem_ctrls0.dram.bytesWritten                 0                       # Total bytes written (Byte)
system.mem_ctrls0.dram.avgRdBW                      0                       # Average DRAM read bandwidth in MiBytes/s ((Byte/Second))
system.mem_ctrls0.dram.avgWrBW                      0                       # Average DRAM write bandwidth in MiBytes/s ((Byte/Second))
system.mem_ctrls0.dram.peakBW                12800.00                       # Theoretical peak bandwidth in MiByte/s ((Byte/Second))
system.mem_ctrls0.dram.busUtil                   0.00                       # Data bus utilization in percentage (Ratio)
system.mem_ctrls0.dram.busUtilRead               0.00                       # Data bus utilization in percentage for reads (Ratio)
system.mem_ctrls0.dram.busUtilWrite              0.00                       # Data bus utilization in percentage for writes (Ratio)
system.mem_ctrls0.dram.pageHitRate                nan                       # Row buffer hit rate, read and write combined (Ratio)
system.mem_ctrls0.dram.power_state.pwrStateResidencyTicks::UNDEFINED     10000000                       # Cumulative time (in ticks) in various power states (Tick)
system.mem_ctrls0.dram.rank0.actEnergy              0                       # Energy for activate commands per rank (pJ) (Joule)
system.mem_ctrls0.dram.rank0.preEnergy              0                       # Energy for precharge commands per rank (pJ) (Joule)
system.mem_ctrls0.dram.rank0.readEnergy             0                       # Energy for read commands per rank (pJ) (Joule)
system.mem_ctrls0.dram.rank0.writeEnergy            0                       # Energy for write commands per rank (pJ) (Joule)
system.mem_ctrls0.dram.rank0.refreshEnergy 614640.000000                       # Energy for refresh commands per rank (pJ) (Joule)
system.mem_ctrls0.dram.rank0.actBackEnergy       112290                       # Energy for active background per rank (pJ) (Joule)
system.mem_ctrls0.dram.rank0.preBackEnergy      3745440                       # Energy for precharge background per rank (pJ) (Joule)
system.mem_ctrls0.dram.rank0.actPowerDownEnergy            0                       # Energy for active power-down per rank (pJ) (Joule)
system.mem_ctrls0.dram.rank0.prePowerDownEnergy            0                       # Energy for precharge power-down per rank (pJ) (Joule)
system.mem_ctrls0.dram.rank0.selfRefreshEnergy            0                       # Energy for self refresh per rank (pJ) (Joule)
system.mem_ctrls0.dram.rank0.totalEnergy      4472370                       # Total energy per rank (pJ) (Joule)
system.mem_ctrls0.dram.rank0.averagePower   447.237000                       # Core power per rank (mW) (Watt)
system.mem_ctrls0.dram.rank0.totalIdleTime            0                       # Total Idle time Per DRAM Rank (Tick)
system.mem_ctrls0.dram.rank0.pwrStateTime::IDLE      9740000                       # Time in different power states (Tick)
system.mem_ctrls0.dram.rank0.pwrStateTime::REF       260000                       # Time in different power states (Tick)
system.mem_ctrls0.dram.rank0.pwrStateTime::SREF            0                       # Time in different power states (Tick)
system.mem_ctrls0.dram.rank0.pwrStateTime::PRE_PDN            0                       # Time in different power states (Tick)
system.mem_ctrls0.dram.rank0.pwrStateTime::ACT            0                       # Time in different power states (Tick)
system.mem_ctrls0.dram.rank0.pwrStateTime::ACT_PDN            0                       # Time in different power states (Tick)
system.mem_ctrls0.dram.rank1.actEnergy              0                       # Energy for activate commands per rank (pJ) (Joule)
system.mem_ctrls0.dram.rank1.preEnergy              0                       # Energy for precharge commands per rank (pJ) (Joule)
system.mem_ctrls0.dram.rank1.readEnergy             0                       # Energy for read commands per rank (pJ) (Joule)
system.mem_ctrls0.dram.rank1.writeEnergy            0                       # Energy for write commands per rank (pJ) (Joule)
system.mem_ctrls0.dram.rank1.refreshEnergy 614640.000000                       # Energy for refresh commands per rank (pJ) (Joule)
system.mem_ctrls0.dram.rank1.actBackEnergy       112290                       # Energy for active background per rank (pJ) (Joule)
system.mem_ctrls0.dram.rank1.preBackEnergy      3745440                       # Energy for precharge background per rank (pJ) (Joule)
system.mem_ctrls0.dram.rank1.actPowerDownEnergy            0                       # Energy for active power-down per rank (pJ) (Joule)
system.mem_ctrls0.dram.rank1.prePowerDownEnergy            0                       # Energy for precharge power-down per rank (pJ) (Joule)
system.mem_ctrls0.dram.rank1.selfRefreshEnergy            0                       # Energy for self refresh per rank (pJ) (Joule)
system.mem_ctrls0.dram.rank1.totalEnergy      4472370                       # Total energy per rank (pJ) (Joule)
system.mem_ctrls0.dram.rank1.averagePower   447.237000                       # Core power per rank (mW) (Watt)
system.mem_ctrls0.dram.rank1.totalIdleTime            0                       # Total Idle time Per DRAM Rank (Tick)
system.mem_ctrls0.dram.rank1.pwrStateTime::IDLE      9740000                       # Time in different power states (Tick)
system.mem_ctrls0.dram.rank1.pwrStateTime::REF       260000                       # Time in different power states (Tick)
system.mem_ctrls0.dram.rank1.pwrStateTime::SREF            0                       # Time in different power states (Tick)
system.mem_ctrls0.dram.rank1.pwrStateTime::PRE_PDN            0                       # Time in different power states (Tick)
system.mem_ctrls0.dram.rank1.pwrStateTime::ACT            0                       # Time in different power states (Tick)
system.mem_ctrls0.dram.rank1.pwrStateTime::ACT_PDN            0                       # Time in different power states (Tick)
system.mem_ctrls0.power_state.pwrStateResidencyTicks::UNDEFINED     10000000                       # Cumulative time (in ticks) in various power states (Tick)
system.mem_ctrls1.priorityMinLatency     0.000000000000                       # per QoS priority minimum request to response latency (Second)
system.mem_ctrls1.priorityMaxLatency     0.000000000000                       # per QoS priority maximum request to response latency (Second)
system.mem_ctrls1.numReadWriteTurnArounds            0                       # Number of turnarounds from READ to WRITE (Count)
system.mem_ctrls1.numWriteReadTurnArounds            0                       # Number of turnarounds from WRITE to READ (Count)
system.mem_ctrls1.numStayReadState                  2                       # Number of times bus staying in READ state (Count)
system.mem_ctrls1.numStayWriteState                 0                       # Number of times bus staying in WRITE state (Count)
system.mem_ctrls1.readReqs                          0                       # Number of read requests accepted (Count)
system.mem_ctrls1.writeReqs                         0                       # Number of write requests accepted (Count)
system.mem_ctrls1.readBursts                        0                       # Number of controller read bursts, including those serviced by the write queue (Count)
system.mem_ctrls1.writeBursts                       0                       # Number of controller write bursts, including those merged in the write queue (Count)
system.mem_ctrls1.servicedByWrQ                     0                       # Number of controller read bursts serviced by the write queue (Count)
system.mem_ctrls1.mergedWrBursts                    0                       # Number of controller write bursts merged with an existing one (Count)
system.mem_ctrls1.neitherReadNorWriteReqs            0                       # Number of requests that are neither read nor write (Count)
system.mem_ctrls1.avgRdQLen                      0.00                       # Average read queue length when enqueuing ((Count/Tick))
system.mem_ctrls1.avgWrQLen                      0.00                       # Average write queue length when enqueuing ((Count/Tick))
system.mem_ctrls1.numRdRetry                        0                       # Number of times read queue was full causing retry (Count)
system.mem_ctrls1.numWrRetry                        0                       # Number of times write queue was full causing retry (Count)
system.mem_ctrls1.readPktSize::0                    0                       # Read request sizes (log2) (Count)
system.mem_ctrls1.readPktSize::1                    0                       # Read request sizes (log2) (Count)
system.mem_ctrls1.readPktSize::2                    0                       # Read request sizes (log2) (Count)
system.mem_ctrls1.readPktSize::3                    0                       # Read request sizes (log2) (Count)
system.mem_ctrls1.readPktSize::4                    0                       # Read request sizes (log2) (Count)
system.mem_ctrls1.readPktSize::5                    0                       # Read request sizes (log2) (Count)
system.mem_ctrls1.readPktSize::6                    0                       # Read request sizes (log2) (Count)
system.mem_ctrls1.writePktSize::0                   0                       # Write request sizes (log2) (Count)
system.mem_ctrls1.writePktSize::1                   0                       # Write request sizes (log2) (Count)
system.mem_ctrls1.writePktSize::2                   0                       # Write request sizes (log2) (Count)
system.mem_ctrls1.writePktSize::3                   0                       # Write request sizes (log2) (Count)
system.mem_ctrls1.writePktSize::4                   0                       # Write request sizes (log2) (Count)
system.mem_ctrls1.writePktSize::5                   0                       # Write request sizes (log2) (Count)
system.mem_ctrls1.writePktSize::6                   0                       # Write request sizes (log2) (Count)
system.mem_ctrls1.rdQLenPdf::0                      0                       # What read queue length does an incoming req see (Count)
system.mem_ctrls1.rdQLenPdf::1                      0                       # What read queue length does an incoming req see (Count)
system.mem_ctrls1.rdQLenPdf::2                      0                       # What read queue length does an incoming req see (Count)
system.mem_ctrls1.rdQLenPdf::3                      0                       # What read queue length does an incoming req see (Count)
system.mem_ctrls1.rdQLenPdf::4                      0                       # What read queue length does an incoming req see (Count)
system.mem_ctrls1.rdQLenPdf::5                      0                       # What read queue length does an incoming req see (Count)
system.mem_ctrls1.rdQLenPdf::6                      0                       # What read queue length does an incoming req see (Count)
system.mem_ctrls1.rdQLenPdf::7                      0                       # What read queue length does an incoming req see (Count)
system.mem_ctrls1.rdQLenPdf::8                      0                       # What read queue length does an incoming req see (Count)
system.mem_ctrls1.rdQLenPdf::9                      0                       # What read queue length does an incoming req see (Count)
system.mem_ctrls1.rdQLenPdf::10                     0                       # What read queue length does an incoming req see (Count)
system.mem_ctrls1.rdQLenPdf::11                     0                       # What read queue length does an incoming req see (Count)
system.mem_ctrls1.rdQLenPdf::12                     0                       # What read queue length does an incoming req see (Count)
system.mem_ctrls1.rdQLenPdf::13                     0                       # What read queue length does an incoming req see (Count)
system.mem_ctrls1.rdQLenPdf::14                     0                       # What read queue length does an incoming req see (Count)
system.mem_ctrls1.rdQLenPdf::15                     0                       # What read queue length does an incoming req see (Count)
system.mem_ctrls1.rdQLenPdf::16                     0                       # What read queue length does an incoming req see (Count)
system.mem_ctrls1.rdQLenPdf::17                     0                       # What read queue length does an incoming req see (Count)
system.mem_ctrls1.rdQLenPdf::18                     0                       # What read queue length does an incoming req see (Count)
system.mem_ctrls1.rdQLenPdf::19                     0                       # What read queue length does an incoming req see (Count)
system.mem_ctrls1.rdQLenPdf::20                     0                       # What read queue length does an incoming req see (Count)
system.mem_ctrls1.rdQLenPdf::21                     0                       # What read queue length does an incoming req see (Count)
system.mem_ctrls1.rdQLenPdf::22                     0                       # What read queue length does an incoming req see (Count)
system.mem_ctrls1.rdQLenPdf::23                     0                       # What read queue length does an incoming req see (Count)
system.mem_ctrls1.rdQLenPdf::24                     0                       # What read queue length does an incoming req see (Count)
system.mem_ctrls1.rdQLenPdf::25                     0                       # What read queue length does an incoming req see (Count)
system.mem_ctrls1.rdQLenPdf::26                     0                       # What read queue length does an incoming req see (Count)
system.mem_ctrls1.rdQLenPdf::27                     0                       # What read queue length does an incoming req see (Count)
system.mem_ctrls1.rdQLenPdf::28                     0                       # What read queue length does an incoming req see (Count)
system.mem_ctrls1.rdQLenPdf::29                     0                       # What read queue length does an incoming req see (Count)
system.mem_ctrls1.rdQLenPdf::30                     0                       # What read queue length does an incoming req see (Count)
system.mem_ctrls1.rdQLenPdf::31                     0                       # What read queue length does an incoming req see (Count)
system.mem_ctrls1.wrQLenPdf::0                      0                       # What write queue length does an incoming req see (Count)
system.mem_ctrls1.wrQLenPdf::1                      0                       # What write queue length does an incoming req see (Count)
system.mem_ctrls1.wrQLenPdf::2                      0                       # What write queue length does an incoming req see (Count)
system.mem_ctrls1.wrQLenPdf::3                      0                       # What write queue length does an incoming req see (Count)
system.mem_ctrls1.wrQLenPdf::4                      0                       # What write queue length does an incoming req see (Count)
system.mem_ctrls1.wrQLenPdf::5                      0                       # What write queue length does an incoming req see (Count)
system.mem_ctrls1.wrQLenPdf::6                      0                       # What write queue length does an incoming req see (Count)
system.mem_ctrls1.wrQLenPdf::7                      0                       # What write queue length does an incoming req see (Count)
system.mem_ctrls1.wrQLenPdf::8                      0                       # What write queue length does an incoming req see (Count)
system.mem_ctrls1.wrQLenPdf::9                      0                       # What write queue length does an incoming req see (Count)
system.mem_ctrls1.wrQLenPdf::10                     0                       # What write queue length does an incoming req see (Count)
system.mem_ctrls1.wrQLenPdf::11                     0                       # What write queue length does an incoming req see (Count)
system.mem_ctrls1.wrQLenPdf::12                     0                       # What write queue length does an incoming req see (Count)
system.mem_ctrls1.wrQLenPdf::13                     0                       # What write queue length does an incoming req see (Count)
system.mem_ctrls1.wrQLenPdf::14                     0                       # What write queue length does an incoming req see (Count)
system.mem_ctrls1.wrQLenPdf::15                     0                       # What write queue length does an incoming req see (Count)
system.mem_ctrls1.wrQLenPdf::16                     0                       # What write queue length does an incoming req see (Count)
system.mem_ctrls1.wrQLenPdf::17                     0                       # What write queue length does an incoming req see (Count)
system.mem_ctrls1.wrQLenPdf::18                     0                       # What write queue length does an incoming req see (Count)
system.mem_ctrls1.wrQLenPdf::19                     0                       # What write queue length does an incoming req see (Count)
system.mem_ctrls1.wrQLenPdf::20                     0                       # What write queue length does an incoming req see (Count)
system.mem_ctrls1.wrQLenPdf::21                     0                       # What write queue length does an incoming req see (Count)
system.mem_ctrls1.wrQLenPdf::22                     0                       # What write queue length does an incoming req see (Count)
system.mem_ctrls1.wrQLenPdf::23                     0                       # What write queue length does an incoming req see (Count)
system.mem_ctrls1.wrQLenPdf::24                     0                       # What write queue length does an incoming req see (Count)
system.mem_ctrls1.wrQLenPdf::25                     0                       # What write queue length does an incoming req see (Count)
system.mem_ctrls1.wrQLenPdf::26                     0                       # What write queue length does an incoming req see (Count)
system.mem_ctrls1.wrQLenPdf::27                     0                       # What write queue length does an incoming req see (Count)
system.mem_ctrls1.wrQLenPdf::28                     0                       # What write queue length does an incoming req see (Count)
system.mem_ctrls1.wrQLenPdf::29                     0                       # What write queue length does an incoming req see (Count)
system.mem_ctrls1.wrQLenPdf::30                     0                       # What write queue length does an incoming req see (Count)
system.mem_ctrls1.wrQLenPdf::31                     0                       # What write queue length does an incoming req see (Count)
system.mem_ctrls1.wrQLenPdf::32                     0                       # What write queue length does an incoming req see (Count)
system.mem_ctrls1.wrQLenPdf::33                     0                       # What write queue length does an incoming req see (Count)
system.mem_ctrls1.wrQLenPdf::34                     0                       # What write queue length does an incoming req see (Count)
system.mem_ctrls1.wrQLenPdf::35                     0                       # What write queue length does an incoming req see (Count)
system.mem_ctrls1.wrQLenPdf::36                     0                       # What write queue length does an incoming req see (Count)
system.mem_ctrls1.wrQLenPdf::37                     0                       # What write queue length does an incoming req see (Count)
system.mem_ctrls1.wrQLenPdf::38                     0                       # What write queue length does an incoming req see (Count)
system.mem_ctrls1.wrQLenPdf::39                     0                       # What write queue length does an incoming req see (Count)
system.mem_ctrls1.wrQLenPdf::40                     0                       # What write queue length does an incoming req see (Count)
system.mem_ctrls1.wrQLenPdf::41                     0                       # What write queue length does an incoming req see (Count)
system.mem_ctrls1.wrQLenPdf::42                     0                       # What write queue length does an incoming req see (Count)
system.mem_ctrls1.wrQLenPdf::43                     0                       # What write queue length does an incoming req see (Count)
system.mem_ctrls1.wrQLenPdf::44                     0                       # What write queue length does an incoming req see (Count)
system.mem_ctrls1.wrQLenPdf::45                     0                       # What write queue length does an incoming req see (Count)
system.mem_ctrls1.wrQLenPdf::46                     0                       # What write queue length does an incoming req see (Count)
system.mem_ctrls1.wrQLenPdf::47                     0                       # What write queue length does an incoming req see (Count)
system.mem_ctrls1.wrQLenPdf::48                     0                       # What write queue length does an incoming req see (Count)
system.mem_ctrls1.wrQLenPdf::49                     0                       # What write queue length does an incoming req see (Count)
system.mem_ctrls1.wrQLenPdf::50                     0                       # What write queue length does an incoming req see (Count)
system.mem_ctrls1.wrQLenPdf::51                     0                       # What write queue length does an incoming req see (Count)
system.mem_ctrls1.wrQLenPdf::52                     0                       # What write queue length does an incoming req see (Count)
system.mem_ctrls1.wrQLenPdf::53                     0                       # What write queue length does an incoming req see (Count)
system.mem_ctrls1.wrQLenPdf::54                     0                       # What write queue length does an incoming req see (Count)
system.mem_ctrls1.wrQLenPdf::55                     0                       # What write queue length does an incoming req see (Count)
system.mem_ctrls1.wrQLenPdf::56                     0                       # What write queue length does an incoming req see (Count)
system.mem_ctrls1.wrQLenPdf::57                     0                       # What write queue length does an incoming req see (Count)
system.mem_ctrls1.wrQLenPdf::58                     0                       # What write queue length does an incoming req see (Count)
system.mem_ctrls1.wrQLenPdf::59                     0                       # What write queue length does an incoming req see (Count)
system.mem_ctrls1.wrQLenPdf::60                     0                       # What write queue length does an incoming req see (Count)
system.mem_ctrls1.wrQLenPdf::61                     0                       # What write queue length does an incoming req see (Count)
system.mem_ctrls1.wrQLenPdf::62                     0                       # What write queue length does an incoming req see (Count)
system.mem_ctrls1.wrQLenPdf::63                     0                       # What write queue length does an incoming req see (Count)
system.mem_ctrls1.bytesReadWrQ                      0                       # Total number of bytes read from write queue (Byte)
system.mem_ctrls1.bytesReadSys                      0                       # Total read bytes from the system interface side (Byte)
system.mem_ctrls1.bytesWrittenSys                   0                       # Total written bytes from the system interface side (Byte)
system.mem_ctrls1.avgRdBWSys               0.00000000                       # Average system read bandwidth in Byte/s ((Byte/Second))
system.mem_ctrls1.avgWrBWSys               0.00000000                       # Average system write bandwidth in Byte/s ((Byte/Second))
system.mem_ctrls1.totGap                            0                       # Total gap between requests (Tick)
system.mem_ctrls1.avgGap                          nan                       # Average gap between requests ((Tick/Count))
system.mem_ctrls1.dram.readBursts                   0                       # Number of DRAM read bursts (Count)
system.mem_ctrls1.dram.writeBursts                  0                       # Number of DRAM write bursts (Count)
system.mem_ctrls1.dram.perBankRdBursts::0            0                       # Per bank write bursts (Count)
system.mem_ctrls1.dram.perBankRdBursts::1            0                       # Per bank write bursts (Count)
system.mem_ctrls1.dram.perBankRdBursts::2            0                       # Per bank write bursts (Count)
system.mem_ctrls1.dram.perBankRdBursts::3            0                       # Per bank write bursts (Count)
system.mem_ctrls1.dram.perBankRdBursts::4            0                       # Per bank write bursts (Count)
system.mem_ctrls1.dram.perBankRdBursts::5            0                       # Per bank write bursts (Count)
system.mem_ctrls1.dram.perBankRdBursts::6            0                       # Per bank write bursts (Count)
system.mem_ctrls1.dram.perBankRdBursts::7            0                       # Per bank write bursts (Count)
system.mem_ctrls1.dram.perBankRdBursts::8            0                       # Per bank write bursts (Count)
system.mem_ctrls1.dram.perBankRdBursts::9            0                       # Per bank write bursts (Count)
system.mem_ctrls1.dram.perBankRdBursts::10            0                       # Per bank write bursts (Count)
system.mem_ctrls1.dram.perBankRdBursts::11            0                       # Per bank write bursts (Count)
system.mem_ctrls1.dram.perBankRdBursts::12            0                       # Per bank write bursts (Count)
system.mem_ctrls1.dram.perBankRdBursts::13            0                       # Per bank write bursts (Count)
system.mem_ctrls1.dram.perBankRdBursts::14            0                       # Per bank write bursts (Count)
system.mem_ctrls1.dram.perBankRdBursts::15            0                       # Per bank write bursts (Count)
system.mem_ctrls1.dram.perBankWrBursts::0            0                       # Per bank write bursts (Count)
system.mem_ctrls1.dram.perBankWrBursts::1            0                       # Per bank write bursts (Count)
system.mem_ctrls1.dram.perBankWrBursts::2            0                       # Per bank write bursts (Count)
system.mem_ctrls1.dram.perBankWrBursts::3            0                       # Per bank write bursts (Count)
system.mem_ctrls1.dram.perBankWrBursts::4            0                       # Per bank write bursts (Count)
system.mem_ctrls1.dram.perBankWrBursts::5            0                       # Per bank write bursts (Count)
system.mem_ctrls1.dram.perBankWrBursts::6            0                       # Per bank write bursts (Count)
system.mem_ctrls1.dram.perBankWrBursts::7            0                       # Per bank write bursts (Count)
system.mem_ctrls1.dram.perBankWrBursts::8            0                       # Per bank write bursts (Count)
system.mem_ctrls1.dram.perBankWrBursts::9            0                       # Per bank write bursts (Count)
system.mem_ctrls1.dram.perBankWrBursts::10            0                       # Per bank write bursts (Count)
system.mem_ctrls1.dram.perBankWrBursts::11            0                       # Per bank write bursts (Count)
system.mem_ctrls1.dram.perBankWrBursts::12            0                       # Per bank write bursts (Count)
system.mem_ctrls1.dram.perBankWrBursts::13            0                       # Per bank write bursts (Count)
system.mem_ctrls1.dram.perBankWrBursts::14            0                       # Per bank write bursts (Count)
system.mem_ctrls1.dram.perBankWrBursts::15            0                       # Per bank write bursts (Count)
system.mem_ctrls1.dram.totQLat                      0                       # Total ticks spent queuing (Tick)
system.mem_ctrls1.dram.totBusLat                    0                       # Total ticks spent in databus transfers (Tick)
system.mem_ctrls1.dram.totMemAccLat                 0                       # Total ticks spent from burst creation until serviced by the DRAM (Tick)
system.mem_ctrls1.dram.avgQLat                    nan                       # Average queueing delay per DRAM burst ((Tick/Count))
system.mem_ctrls1.dram.avgBusLat                  nan                       # Average bus latency per DRAM burst ((Tick/Count))
system.mem_ctrls1.dram.avgMemAccLat               nan                       # Average memory access latency per DRAM burst ((Tick/Count))
system.mem_ctrls1.dram.readRowHits                  0                       # Number of row buffer hits during reads (Count)
system.mem_ctrls1.dram.writeRowHits                 0                       # Number of row buffer hits during writes (Count)
system.mem_ctrls1.dram.readRowHitRate             nan                       # Row buffer hit rate for reads (Ratio)
system.mem_ctrls1.dram.writeRowHitRate            nan                       # Row buffer hit rate for writes (Ratio)
system.mem_ctrls1.dram.bytesRead                    0                       # Total bytes read (Byte)
system.mem_ctrls1.dram.bytesWritten                 0                       # Total bytes written (Byte)
system.mem_ctrls1.dram.avgRdBW                      0                       # Average DRAM read bandwidth in MiBytes/s ((Byte/Second))
system.mem_ctrls1.dram.avgWrBW                      0                       # Average DRAM write bandwidth in MiBytes/s ((Byte/Second))
system.mem_ctrls1.dram.peakBW                12800.00                       # Theoretical peak bandwidth in MiByte/s ((Byte/Second))
system.mem_ctrls1.dram.busUtil                   0.00                       # Data bus utilization in percentage (Ratio)
system.mem_ctrls1.dram.busUtilRead               0.00                       # Data bus utilization in percentage for reads (Ratio)
system.mem_ctrls1.dram.busUtilWrite              0.00                       # Data bus utilization in percentage for writes (Ratio)
system.mem_ctrls1.dram.pageHitRate                nan                       # Row buffer hit rate, read and write combined (Ratio)
system.mem_ctrls1.dram.power_state.pwrStateResidencyTicks::UNDEFINED     10000000                       # Cumulative time (in ticks) in various power states (Tick)
system.mem_ctrls1.dram.rank0.actEnergy              0                       # Energy for activate commands per rank (pJ) (Joule)
system.mem_ctrls1.dram.rank0.preEnergy              0                       # Energy for precharge commands per rank (pJ) (Joule)
system.mem_ctrls1.dram.rank0.readEnergy             0                       # Energy for read commands per rank (pJ) (Joule)
system.mem_ctrls1.dram.rank0.writeEnergy            0                       # Energy for write commands per rank (pJ) (Joule)
system.mem_ctrls1.dram.rank0.refreshEnergy 614640.000000                       # Energy for refresh commands per rank (pJ) (Joule)
system.mem_ctrls1.dram.rank0.actBackEnergy       112290                       # Energy for active background per rank (pJ) (Joule)
system.mem_ctrls1.dram.rank0.preBackEnergy      3745440                       # Energy for precharge background per rank (pJ) (Joule)
system.mem_ctrls1.dram.rank0.actPowerDownEnergy            0                       # Energy for active power-down per rank (pJ) (Joule)
system.mem_ctrls1.dram.rank0.prePowerDownEnergy            0                       # Energy for precharge power-down per rank (pJ) (Joule)
system.mem_ctrls1.dram.rank0.selfRefreshEnergy            0                       # Energy for self refresh per rank (pJ) (Joule)
system.mem_ctrls1.dram.rank0.totalEnergy      4472370                       # Total energy per rank (pJ) (Joule)
system.mem_ctrls1.dram.rank0.averagePower   447.237000                       # Core power per rank (mW) (Watt)
system.mem_ctrls1.dram.rank0.totalIdleTime            0                       # Total Idle time Per DRAM Rank (Tick)
system.mem_ctrls1.dram.rank0.pwrStateTime::IDLE      9740000                       # Time in different power states (Tick)
system.mem_ctrls1.dram.rank0.pwrStateTime::REF       260000                       # Time in different power states (Tick)
system.mem_ctrls1.dram.rank0.pwrStateTime::SREF            0                       # Time in different power states (Tick)
system.mem_ctrls1.dram.rank0.pwrStateTime::PRE_PDN            0                       # Time in different power states (Tick)
system.mem_ctrls1.dram.rank0.pwrStateTime::ACT            0                       # Time in different power states (Tick)
system.mem_ctrls1.dram.rank0.pwrStateTime::ACT_PDN            0                       # Time in different power states (Tick)
system.mem_ctrls1.dram.rank1.actEnergy              0                       # Energy for activate commands per rank (pJ) (Joule)
system.mem_ctrls1.dram.rank1.preEnergy              0                       # Energy for precharge commands per rank (pJ) (Joule)
system.mem_ctrls1.dram.rank1.readEnergy             0                       # Energy for read commands per rank (pJ) (Joule)
system.mem_ctrls1.dram.rank1.writeEnergy            0                       # Energy for write commands per rank (pJ) (Joule)
system.mem_ctrls1.dram.rank1.refreshEnergy 614640.000000                       # Energy for refresh commands per rank (pJ) (Joule)
system.mem_ctrls1.dram.rank1.actBackEnergy       112290                       # Energy for active background per rank (pJ) (Joule)
system.mem_ctrls1.dram.rank1.preBackEnergy      3745440                       # Energy for precharge background per rank (pJ) (Joule)
system.mem_ctrls1.dram.rank1.actPowerDownEnergy            0                       # Energy for active power-down per rank (pJ) (Joule)
system.mem_ctrls1.dram.rank1.prePowerDownEnergy            0                       # Energy for precharge power-down per rank (pJ) (Joule)
system.mem_ctrls1.dram.rank1.selfRefreshEnergy            0                       # Energy for self refresh per rank (pJ) (Joule)
system.mem_ctrls1.dram.rank1.totalEnergy      4472370                       # Total energy per rank (pJ) (Joule)
system.mem_ctrls1.dram.rank1.averagePower   447.237000                       # Core power per rank (mW) (Watt)
system.mem_ctrls1.dram.rank1.totalIdleTime            0                       # Total Idle time Per DRAM Rank (Tick)
system.mem_ctrls1.dram.rank1.pwrStateTime::IDLE      9740000                       # Time in different power states (Tick)
system.mem_ctrls1.dram.rank1.pwrStateTime::REF       260000                       # Time in different power states (Tick)
system.mem_ctrls1.dram.rank1.pwrStateTime::SREF            0                       # Time in different power states (Tick)
system.mem_ctrls1.dram.rank1.pwrStateTime::PRE_PDN            0                       # Time in different power states (Tick)
system.mem_ctrls1.dram.rank1.pwrStateTime::ACT            0                       # Time in different power states (Tick)
system.mem_ctrls1.dram.rank1.pwrStateTime::ACT_PDN            0                       # Time in different power states (Tick)
system.mem_ctrls1.power_state.pwrStateResidencyTicks::UNDEFINED     10000000                       # Cumulative time (in ticks) in various power states (Tick)
system.mem_ctrls10.priorityMinLatency    0.000000000000                       # per QoS priority minimum request to response latency (Second)
system.mem_ctrls10.priorityMaxLatency    0.000000000000                       # per QoS priority maximum request to response latency (Second)
system.mem_ctrls10.numReadWriteTurnArounds            0                       # Number of turnarounds from READ to WRITE (Count)
system.mem_ctrls10.numWriteReadTurnArounds            0                       # Number of turnarounds from WRITE to READ (Count)
system.mem_ctrls10.numStayReadState                 2                       # Number of times bus staying in READ state (Count)
system.mem_ctrls10.numStayWriteState                0                       # Number of times bus staying in WRITE state (Count)
system.mem_ctrls10.readReqs                         0                       # Number of read requests accepted (Count)
system.mem_ctrls10.writeReqs                        0                       # Number of write requests accepted (Count)
system.mem_ctrls10.readBursts                       0                       # Number of controller read bursts, including those serviced by the write queue (Count)
system.mem_ctrls10.writeBursts                      0                       # Number of controller write bursts, including those merged in the write queue (Count)
system.mem_ctrls10.servicedByWrQ                    0                       # Number of controller read bursts serviced by the write queue (Count)
system.mem_ctrls10.mergedWrBursts                   0                       # Number of controller write bursts merged with an existing one (Count)
system.mem_ctrls10.neitherReadNorWriteReqs            0                       # Number of requests that are neither read nor write (Count)
system.mem_ctrls10.avgRdQLen                     0.00                       # Average read queue length when enqueuing ((Count/Tick))
system.mem_ctrls10.avgWrQLen                     0.00                       # Average write queue length when enqueuing ((Count/Tick))
system.mem_ctrls10.numRdRetry                       0                       # Number of times read queue was full causing retry (Count)
system.mem_ctrls10.numWrRetry                       0                       # Number of times write queue was full causing retry (Count)
system.mem_ctrls10.readPktSize::0                   0                       # Read request sizes (log2) (Count)
system.mem_ctrls10.readPktSize::1                   0                       # Read request sizes (log2) (Count)
system.mem_ctrls10.readPktSize::2                   0                       # Read request sizes (log2) (Count)
system.mem_ctrls10.readPktSize::3                   0                       # Read request sizes (log2) (Count)
system.mem_ctrls10.readPktSize::4                   0                       # Read request sizes (log2) (Count)
system.mem_ctrls10.readPktSize::5                   0                       # Read request sizes (log2) (Count)
system.mem_ctrls10.readPktSize::6                   0                       # Read request sizes (log2) (Count)
system.mem_ctrls10.writePktSize::0                  0                       # Write request sizes (log2) (Count)
system.mem_ctrls10.writePktSize::1                  0                       # Write request sizes (log2) (Count)
system.mem_ctrls10.writePktSize::2                  0                       # Write request sizes (log2) (Count)
system.mem_ctrls10.writePktSize::3                  0                       # Write request sizes (log2) (Count)
system.mem_ctrls10.writePktSize::4                  0                       # Write request sizes (log2) (Count)
system.mem_ctrls10.writePktSize::5                  0                       # Write request sizes (log2) (Count)
system.mem_ctrls10.writePktSize::6                  0                       # Write request sizes (log2) (Count)
system.mem_ctrls10.rdQLenPdf::0                     0                       # What read queue length does an incoming req see (Count)
system.mem_ctrls10.rdQLenPdf::1                     0                       # What read queue length does an incoming req see (Count)
system.mem_ctrls10.rdQLenPdf::2                     0                       # What read queue length does an incoming req see (Count)
system.mem_ctrls10.rdQLenPdf::3                     0                       # What read queue length does an incoming req see (Count)
system.mem_ctrls10.rdQLenPdf::4                     0                       # What read queue length does an incoming req see (Count)
system.mem_ctrls10.rdQLenPdf::5                     0                       # What read queue length does an incoming req see (Count)
system.mem_ctrls10.rdQLenPdf::6                     0                       # What read queue length does an incoming req see (Count)
system.mem_ctrls10.rdQLenPdf::7                     0                       # What read queue length does an incoming req see (Count)
system.mem_ctrls10.rdQLenPdf::8                     0                       # What read queue length does an incoming req see (Count)
system.mem_ctrls10.rdQLenPdf::9                     0                       # What read queue length does an incoming req see (Count)
system.mem_ctrls10.rdQLenPdf::10                    0                       # What read queue length does an incoming req see (Count)
system.mem_ctrls10.rdQLenPdf::11                    0                       # What read queue length does an incoming req see (Count)
system.mem_ctrls10.rdQLenPdf::12                    0                       # What read queue length does an incoming req see (Count)
system.mem_ctrls10.rdQLenPdf::13                    0                       # What read queue length does an incoming req see (Count)
system.mem_ctrls10.rdQLenPdf::14                    0                       # What read queue length does an incoming req see (Count)
system.mem_ctrls10.rdQLenPdf::15                    0                       # What read queue length does an incoming req see (Count)
system.mem_ctrls10.rdQLenPdf::16                    0                       # What read queue length does an incoming req see (Count)
system.mem_ctrls10.rdQLenPdf::17                    0                       # What read queue length does an incoming req see (Count)
system.mem_ctrls10.rdQLenPdf::18                    0                       # What read queue length does an incoming req see (Count)
system.mem_ctrls10.rdQLenPdf::19                    0                       # What read queue length does an incoming req see (Count)
system.mem_ctrls10.rdQLenPdf::20                    0                       # What read queue length does an incoming req see (Count)
system.mem_ctrls10.rdQLenPdf::21                    0                       # What read queue length does an incoming req see (Count)
system.mem_ctrls10.rdQLenPdf::22                    0                       # What read queue length does an incoming req see (Count)
system.mem_ctrls10.rdQLenPdf::23                    0                       # What read queue length does an incoming req see (Count)
system.mem_ctrls10.rdQLenPdf::24                    0                       # What read queue length does an incoming req see (Count)
system.mem_ctrls10.rdQLenPdf::25                    0                       # What read queue length does an incoming req see (Count)
system.mem_ctrls10.rdQLenPdf::26                    0                       # What read queue length does an incoming req see (Count)
system.mem_ctrls10.rdQLenPdf::27                    0                       # What read queue length does an incoming req see (Count)
system.mem_ctrls10.rdQLenPdf::28                    0                       # What read queue length does an incoming req see (Count)
system.mem_ctrls10.rdQLenPdf::29                    0                       # What read queue length does an incoming req see (Count)
system.mem_ctrls10.rdQLenPdf::30                    0                       # What read queue length does an incoming req see (Count)
system.mem_ctrls10.rdQLenPdf::31                    0                       # What read queue length does an incoming req see (Count)
system.mem_ctrls10.wrQLenPdf::0                     0                       # What write queue length does an incoming req see (Count)
system.mem_ctrls10.wrQLenPdf::1                     0                       # What write queue length does an incoming req see (Count)
system.mem_ctrls10.wrQLenPdf::2                     0                       # What write queue length does an incoming req see (Count)
system.mem_ctrls10.wrQLenPdf::3                     0                       # What write queue length does an incoming req see (Count)
system.mem_ctrls10.wrQLenPdf::4                     0                       # What write queue length does an incoming req see (Count)
system.mem_ctrls10.wrQLenPdf::5                     0                       # What write queue length does an incoming req see (Count)
system.mem_ctrls10.wrQLenPdf::6                     0                       # What write queue length does an incoming req see (Count)
system.mem_ctrls10.wrQLenPdf::7                     0                       # What write queue length does an incoming req see (Count)
system.mem_ctrls10.wrQLenPdf::8                     0                       # What write queue length does an incoming req see (Count)
system.mem_ctrls10.wrQLenPdf::9                     0                       # What write queue length does an incoming req see (Count)
system.mem_ctrls10.wrQLenPdf::10                    0                       # What write queue length does an incoming req see (Count)
system.mem_ctrls10.wrQLenPdf::11                    0                       # What write queue length does an incoming req see (Count)
system.mem_ctrls10.wrQLenPdf::12                    0                       # What write queue length does an incoming req see (Count)
system.mem_ctrls10.wrQLenPdf::13                    0                       # What write queue length does an incoming req see (Count)
system.mem_ctrls10.wrQLenPdf::14                    0                       # What write queue length does an incoming req see (Count)
system.mem_ctrls10.wrQLenPdf::15                    0                       # What write queue length does an incoming req see (Count)
system.mem_ctrls10.wrQLenPdf::16                    0                       # What write queue length does an incoming req see (Count)
system.mem_ctrls10.wrQLenPdf::17                    0                       # What write queue length does an incoming req see (Count)
system.mem_ctrls10.wrQLenPdf::18                    0                       # What write queue length does an incoming req see (Count)
system.mem_ctrls10.wrQLenPdf::19                    0                       # What write queue length does an incoming req see (Count)
system.mem_ctrls10.wrQLenPdf::20                    0                       # What write queue length does an incoming req see (Count)
[...]
system.ruby.network.routers23.sw_input_arbiter_activity        24020                       (Unspecified)
system.ruby.network.routers23.sw_output_arbiter_activity        20320                       (Unspecified)
system.ruby.network.routers24.buffer_reads        23030                       (Unspecified)
system.ruby.network.routers24.buffer_writes        23030                       (Unspecified)
system.ruby.network.routers24.crossbar_activity        23000                       (Unspecified)
system.ruby.network.routers24.sw_input_arbiter_activity        27569                       (Unspecified)
system.ruby.network.routers24.sw_output_arbiter_activity        23000                       (Unspecified)
system.ruby.network.routers25.buffer_reads        29088                       (Unspecified)
system.ruby.network.routers25.buffer_writes        29088                       (Unspecified)
system.ruby.network.routers25.crossbar_activity        29021                       (Unspecified)
system.ruby.network.routers25.sw_input_arbiter_activity        35313                       (Unspecified)
system.ruby.network.routers25.sw_output_arbiter_activity        29021                       (Unspecified)
system.ruby.network.routers26.buffer_reads        33095                       (Unspecified)
system.ruby.network.routers26.buffer_writes        33095                       (Unspecified)
system.ruby.network.routers26.crossbar_activity        33034                       (Unspecified)
system.ruby.network.routers26.sw_input_arbiter_activity        41219                       (Unspecified)
system.ruby.network.routers26.sw_output_arbiter_activity        33034                       (Unspecified)
system.ruby.network.routers27.buffer_reads        36186                       (Unspecified)
system.ruby.network.routers27.buffer_writes        36186                       (Unspecified)
system.ruby.network.routers27.crossbar_activity        36133                       (Unspecified)
system.ruby.network.routers27.sw_input_arbiter_activity        44830                       (Unspecified)
system.ruby.network.routers27.sw_output_arbiter_activity        36133                       (Unspecified)
system.ruby.network.routers28.buffer_reads        35957                       (Unspecified)
system.ruby.network.routers28.buffer_writes        35957                       (Unspecified)
system.ruby.network.routers28.crossbar_activity        35871                       (Unspecified)
system.ruby.network.routers28.sw_input_arbiter_activity        44462                       (Unspecified)
system.ruby.network.routers28.sw_output_arbiter_activity        35871                       (Unspecified)
system.ruby.network.routers29.buffer_reads        33687                       (Unspecified)
system.ruby.network.routers29.buffer_writes        33687                       (Unspecified)
system.ruby.network.routers29.crossbar_activity        33627                       (Unspecified)
system.ruby.network.routers29.sw_input_arbiter_activity        41997                       (Unspecified)
system.ruby.network.routers29.sw_output_arbiter_activity        33627                       (Unspecified)
system.ruby.network.routers30.buffer_reads        28802                       (Unspecified)
system.ruby.network.routers30.buffer_writes        28802                       (Unspecified)
system.ruby.network.routers30.crossbar_activity        28738                       (Unspecified)
system.ruby.network.routers30.sw_input_arbiter_activity        35019                       (Unspecified)
system.ruby.network.routers30.sw_output_arbiter_activity        28738                       (Unspecified)
system.ruby.network.routers31.buffer_reads        22873                       (Unspecified)
system.ruby.network.routers31.buffer_writes        22873                       (Unspecified)
system.ruby.network.routers31.crossbar_activity        22834                       (Unspecified)
system.ruby.network.routers31.sw_input_arbiter_activity        27416                       (Unspecified)
system.ruby.network.routers31.sw_output_arbiter_activity        22834                       (Unspecified)
system.ruby.network.routers32.buffer_reads        23062                       (Unspecified)
system.ruby.network.routers32.buffer_writes        23062                       (Unspecified)
system.ruby.network.routers32.crossbar_activity        23032                       (Unspecified)
system.ruby.network.routers32.sw_input_arbiter_activity        27415                       (Unspecified)
system.ruby.network.routers32.sw_output_arbiter_activity        23032                       (Unspecified)
system.ruby.network.routers33.buffer_reads        29330                       (Unspecified)
system.ruby.network.routers33.buffer_writes        29330                       (Unspecified)
system.ruby.network.routers33.crossbar_activity        29278                       (Unspecified)
system.ruby.network.routers33.sw_input_arbiter_activity        35789                       (Unspecified)
system.ruby.network.routers33.sw_output_arbiter_activity        29278                       (Unspecified)
system.ruby.network.routers34.buffer_reads        33458                       (Unspecified)
system.ruby.network.routers34.buffer_writes        33458                       (Unspecified)
system.ruby.network.routers34.crossbar_activity        33379                       (Unspecified)
system.ruby.network.routers34.sw_input_arbiter_activity        41319                       (Unspecified)
system.ruby.network.routers34.sw_output_arbiter_activity        33379                       (Unspecified)
system.ruby.network.routers35.buffer_reads        36219                       (Unspecified)
system.ruby.network.routers35.buffer_writes        36219                       (Unspecified)
system.ruby.network.routers35.crossbar_activity        36149                       (Unspecified)
system.ruby.network.routers35.sw_input_arbiter_activity        44752                       (Unspecified)
system.ruby.network.routers35.sw_output_arbiter_activity        36149                       (Unspecified)
system.ruby.network.routers36.buffer_reads        36156                       (Unspecified)
system.ruby.network.routers36.buffer_writes        36156                       (Unspecified)
system.ruby.network.routers36.crossbar_activity        36085                       (Unspecified)
system.ruby.network.routers36.sw_input_arbiter_activity        45128                       (Unspecified)
system.ruby.network.routers36.sw_output_arbiter_activity        36085                       (Unspecified)
system.ruby.network.routers37.buffer_reads        33383                       (Unspecified)
system.ruby.network.routers37.buffer_writes        33383                       (Unspecified)
system.ruby.network.routers37.crossbar_activity        33324                       (Unspecified)
system.ruby.network.routers37.sw_input_arbiter_activity        41335                       (Unspecified)
system.ruby.network.routers37.sw_output_arbiter_activity        33324                       (Unspecified)
system.ruby.network.routers38.buffer_reads        28636                       (Unspecified)
system.ruby.network.routers38.buffer_writes        28636                       (Unspecified)
system.ruby.network.routers38.crossbar_activity        28569                       (Unspecified)
system.ruby.network.routers38.sw_input_arbiter_activity        34744                       (Unspecified)
system.ruby.network.routers38.sw_output_arbiter_activity        28569                       (Unspecified)
system.ruby.network.routers39.buffer_reads        22846                       (Unspecified)
system.ruby.network.routers39.buffer_writes        22846                       (Unspecified)
system.ruby.network.routers39.crossbar_activity        22812                       (Unspecified)
system.ruby.network.routers39.sw_input_arbiter_activity        27045                       (Unspecified)
system.ruby.network.routers39.sw_output_arbiter_activity        22812                       (Unspecified)
system.ruby.network.routers40.buffer_reads        20903                       (Unspecified)
system.ruby.network.routers40.buffer_writes        20903                       (Unspecified)
system.ruby.network.routers40.crossbar_activity        20885                       (Unspecified)
system.ruby.network.routers40.sw_input_arbiter_activity        24798                       (Unspecified)
system.ruby.network.routers40.sw_output_arbiter_activity        20885                       (Unspecified)
system.ruby.network.routers41.buffer_reads        27214                       (Unspecified)
system.ruby.network.routers41.buffer_writes        27214                       (Unspecified)
system.ruby.network.routers41.crossbar_activity        27160                       (Unspecified)
system.ruby.network.routers41.sw_input_arbiter_activity        33340                       (Unspecified)
system.ruby.network.routers41.sw_output_arbiter_activity        27160                       (Unspecified)
system.ruby.network.routers42.buffer_reads        31401                       (Unspecified)
system.ruby.network.routers42.buffer_writes        31401                       (Unspecified)
system.ruby.network.routers42.crossbar_activity        31366                       (Unspecified)
system.ruby.network.routers42.sw_input_arbiter_activity        38788                       (Unspecified)
system.ruby.network.routers42.sw_output_arbiter_activity        31366                       (Unspecified)
system.ruby.network.routers43.buffer_reads        33771                       (Unspecified)
system.ruby.network.routers43.buffer_writes        33771                       (Unspecified)
system.ruby.network.routers43.crossbar_activity        33739                       (Unspecified)
system.ruby.network.routers43.sw_input_arbiter_activity        42153                       (Unspecified)
system.ruby.network.routers43.sw_output_arbiter_activity        33739                       (Unspecified)
system.ruby.network.routers44.buffer_reads        34105                       (Unspecified)
system.ruby.network.routers44.buffer_writes        34105                       (Unspecified)
system.ruby.network.routers44.crossbar_activity        34065                       (Unspecified)
system.ruby.network.routers44.sw_input_arbiter_activity        42402                       (Unspecified)
system.ruby.network.routers44.sw_output_arbiter_activity        34065                       (Unspecified)
system.ruby.network.routers45.buffer_reads        31489                       (Unspecified)
system.ruby.network.routers45.buffer_writes        31489                       (Unspecified)
system.ruby.network.routers45.crossbar_activity        31433                       (Unspecified)
system.ruby.network.routers45.sw_input_arbiter_activity        39130                       (Unspecified)
system.ruby.network.routers45.sw_output_arbiter_activity        31433                       (Unspecified)
system.ruby.network.routers46.buffer_reads        26896                       (Unspecified)
system.ruby.network.routers46.buffer_writes        26896                       (Unspecified)
system.ruby.network.routers46.crossbar_activity        26824                       (Unspecified)
system.ruby.network.routers46.sw_input_arbiter_activity        32960                       (Unspecified)
system.ruby.network.routers46.sw_output_arbiter_activity        26824                       (Unspecified)
system.ruby.network.routers47.buffer_reads        20726                       (Unspecified)
system.ruby.network.routers47.buffer_writes        20726                       (Unspecified)
system.ruby.network.routers47.crossbar_activity        20710                       (Unspecified)
system.ruby.network.routers47.sw_input_arbiter_activity        24499                       (Unspecified)
system.ruby.network.routers47.sw_output_arbiter_activity        20710                       (Unspecified)
system.ruby.network.routers48.buffer_reads        16348                       (Unspecified)
system.ruby.network.routers48.buffer_writes        16348                       (Unspecified)
system.ruby.network.routers48.crossbar_activity        16337                       (Unspecified)
system.ruby.network.routers48.sw_input_arbiter_activity        18889                       (Unspecified)
system.ruby.network.routers48.sw_output_arbiter_activity        16337                       (Unspecified)
system.ruby.network.routers49.buffer_reads        22515                       (Unspecified)
system.ruby.network.routers49.buffer_writes        22515                       (Unspecified)
system.ruby.network.routers49.crossbar_activity        22470                       (Unspecified)
system.ruby.network.routers49.sw_input_arbiter_activity        27369                       (Unspecified)
system.ruby.network.routers49.sw_output_arbiter_activity        22470                       (Unspecified)
system.ruby.network.routers50.buffer_reads        26808                       (Unspecified)
system.ruby.network.routers50.buffer_writes        26808                       (Unspecified)
system.ruby.network.routers50.crossbar_activity        26748                       (Unspecified)
system.ruby.network.routers50.sw_input_arbiter_activity        33076                       (Unspecified)
system.ruby.network.routers50.sw_output_arbiter_activity        26748                       (Unspecified)
system.ruby.network.routers51.buffer_reads        29013                       (Unspecified)
system.ruby.network.routers51.buffer_writes        29013                       (Unspecified)
system.ruby.network.routers51.crossbar_activity        28957                       (Unspecified)
system.ruby.network.routers51.sw_input_arbiter_activity        35762                       (Unspecified)
system.ruby.network.routers51.sw_output_arbiter_activity        28957                       (Unspecified)
system.ruby.network.routers52.buffer_reads        29385                       (Unspecified)
system.ruby.network.routers52.buffer_writes        29385                       (Unspecified)
system.ruby.network.routers52.crossbar_activity        29343                       (Unspecified)
system.ruby.network.routers52.sw_input_arbiter_activity        36271                       (Unspecified)
system.ruby.network.routers52.sw_output_arbiter_activity        29343                       (Unspecified)
system.ruby.network.routers53.buffer_reads        26459                       (Unspecified)
system.ruby.network.routers53.buffer_writes        26459                       (Unspecified)
system.ruby.network.routers53.crossbar_activity        26395                       (Unspecified)
system.ruby.network.routers53.sw_input_arbiter_activity        32681                       (Unspecified)
system.ruby.network.routers53.sw_output_arbiter_activity        26395                       (Unspecified)
system.ruby.network.routers54.buffer_reads        21143                       (Unspecified)
system.ruby.network.routers54.buffer_writes        21143                       (Unspecified)
system.ruby.network.routers54.crossbar_activity        21081                       (Unspecified)
system.ruby.network.routers54.sw_input_arbiter_activity        24978                       (Unspecified)
system.ruby.network.routers54.sw_output_arbiter_activity        21081                       (Unspecified)
system.ruby.network.routers55.buffer_reads        15975                       (Unspecified)
system.ruby.network.routers55.buffer_writes        15975                       (Unspecified)
system.ruby.network.routers55.crossbar_activity        15955                       (Unspecified)
system.ruby.network.routers55.sw_input_arbiter_activity        18060                       (Unspecified)
system.ruby.network.routers55.sw_output_arbiter_activity        15955                       (Unspecified)
system.ruby.network.routers56.buffer_reads        10547                       (Unspecified)
system.ruby.network.routers56.buffer_writes        10547                       (Unspecified)
system.ruby.network.routers56.crossbar_activity        10531                       (Unspecified)
system.ruby.network.routers56.sw_input_arbiter_activity        10932                       (Unspecified)
system.ruby.network.routers56.sw_output_arbiter_activity        10531                       (Unspecified)
system.ruby.network.routers57.buffer_reads        16754                       (Unspecified)
system.ruby.network.routers57.buffer_writes        16754                       (Unspecified)
system.ruby.network.routers57.crossbar_activity        16710                       (Unspecified)
system.ruby.network.routers57.sw_input_arbiter_activity        19298                       (Unspecified)
system.ruby.network.routers57.sw_output_arbiter_activity        16710                       (Unspecified)
system.ruby.network.routers58.buffer_reads        21215                       (Unspecified)
system.ruby.network.routers58.buffer_writes        21215                       (Unspecified)
system.ruby.network.routers58.crossbar_activity        21160                       (Unspecified)
system.ruby.network.routers58.sw_input_arbiter_activity        25534                       (Unspecified)
system.ruby.network.routers58.sw_output_arbiter_activity        21160                       (Unspecified)
system.ruby.network.routers59.buffer_reads        23404                       (Unspecified)
system.ruby.network.routers59.buffer_writes        23404                       (Unspecified)
system.ruby.network.routers59.crossbar_activity        23379                       (Unspecified)
system.ruby.network.routers59.sw_input_arbiter_activity        28454                       (Unspecified)
system.ruby.network.routers59.sw_output_arbiter_activity        23379                       (Unspecified)
system.ruby.network.routers60.buffer_reads        23279                       (Unspecified)
system.ruby.network.routers60.buffer_writes        23279                       (Unspecified)
system.ruby.network.routers60.crossbar_activity        23243                       (Unspecified)
system.ruby.network.routers60.sw_input_arbiter_activity        28208                       (Unspecified)
system.ruby.network.routers60.sw_output_arbiter_activity        23243                       (Unspecified)
system.ruby.network.routers61.buffer_reads        20846                       (Unspecified)
system.ruby.network.routers61.buffer_writes        20846                       (Unspecified)
system.ruby.network.routers61.crossbar_activity        20786                       (Unspecified)
system.ruby.network.routers61.sw_input_arbiter_activity        25426                       (Unspecified)
system.ruby.network.routers61.sw_output_arbiter_activity        20786                       (Unspecified)
system.ruby.network.routers62.buffer_reads        15706                       (Unspecified)
system.ruby.network.routers62.buffer_writes        15706                       (Unspecified)
system.ruby.network.routers62.crossbar_activity        15664                       (Unspecified)
system.ruby.network.routers62.sw_input_arbiter_activity        17889                       (Unspecified)
system.ruby.network.routers62.sw_output_arbiter_activity        15664                       (Unspecified)
system.ruby.network.routers63.buffer_reads        10450                       (Unspecified)
system.ruby.network.routers63.buffer_writes        10450                       (Unspecified)
system.ruby.network.routers63.crossbar_activity        10430                       (Unspecified)
system.ruby.network.routers63.sw_input_arbiter_activity        10796                       (Unspecified)
system.ruby.network.routers63.sw_output_arbiter_activity        10430                       (Unspecified)

---------- End Simulation Statistics   ----------
